Replan_api_v1/api/files/ojo_caliente/Loads.dss
new load.350199708 bus1=node_oh4301275.1 conn=y phases=1 kv=7.2 kw=0.945278823375702 kvar=0.0608032494783401 
new load.27967 bus1=node_oh4307466.3 conn=y phases=1 kv=7.2 kw=0.0 kvar=0.0 
new load.250008301 bus1=node_oh4307466.3 conn=y phases=1 kv=7.2 kw=0.0748735666275024 kvar=0.00481609860435128 
new load.315390018 bus1=node_oh4307466.3 conn=y phases=1 kv=7.2 kw=0.21526150405407 kvar=0.0138462837785482 
new load.350213107 bus1=node_oh4307466.3 conn=y phases=1 kv=7.2 kw=1.17613935470581 kvar=0.0756529122591019 
new load.27961 bus1=node_oh_3_32_25_3_0001.3 conn=y phases=1 kv=7.2 kw=1.39763963222504 kvar=0.0899004861712456 
new load.330132140 bus1=node_oh4301470.3 conn=y phases=1 kv=7.2 kw=0.290135085582733 kvar=0.0186623837798834 
new load.150014703 bus1=node_oh4301470.3 conn=y phases=1 kv=7.2 kw=0.315092980861664 kvar=0.0202677510678768 
new load.350198604 bus1=node_oh4301470.3 conn=y phases=1 kv=7.2 kw=1.41635799407959 kvar=0.0911045148968697 
new load.350311538 bus1=node_oh4301470.3 conn=y phases=1 kv=7.2 kw=1.06070840358734 kvar=0.0682280361652374 
new load.350291809 bus1=node_oh4307348.3 conn=y phases=1 kv=7.2 kw=0.836088299751282 kvar=0.0537797771394253 
new load.350207808 bus1=node_oh4307348.3 conn=y phases=1 kv=7.2 kw=0.50227689743042 kvar=0.0323079973459244 
new load.28039 bus1=node_oh4307348.3 conn=y phases=1 kv=7.2 kw=0.0 kvar=0.0 
new load.350282001 bus1=node_oh4307348.3 conn=y phases=1 kv=7.2 kw=0.396205991506577 kvar=0.0254851914942265 
new load.28335 bus1=node_ug4307353.3 conn=y phases=1 kv=7.2 kw=0.0 kvar=0.0 
new load.350214901 bus1=node_oh4301581.2 conn=y phases=1 kv=7.2 kw=0.857926309108734 kvar=0.0551844649016857 
new load.352067604 bus1=node_oh4302612.3 conn=y phases=1 kv=7.2 kw=0.149747133255005 kvar=0.00963219720870256 
new load.152000602 bus1=node_oh4302612.3 conn=y phases=1 kv=7.2 kw=0.0 kvar=0.0 
new load.350312342 bus1=node_oh4302612.3 conn=y phases=1 kv=7.2 kw=1.67841553688049 kvar=0.107960857450962 
new load.150021408 bus1=node_oh4301033.3 conn=y phases=1 kv=7.2 kw=0.0 kvar=0.0 
new load.350274009 bus1=node_oh4301033.3 conn=y phases=1 kv=7.2 kw=3.00742149353027 kvar=0.19344662129879 
new load.350311511 bus1=node_oh4301123.3 conn=y phases=1 kv=7.2 kw=0.851686835289001 kvar=0.0547831244766712 
new load.350311627 bus1=node_oh4301151.3 conn=y phases=1 kv=7.2 kw=0.889123618602753 kvar=0.0571911707520485 
new load.5068 bus1=node_oh4302376.3 conn=y phases=1 kv=7.2 kw=0.0 kvar=0.0 
new load.350311758 bus1=node_oh4302376.3 conn=y phases=1 kv=7.2 kw=0.0 kvar=0.0 
new load.417256604 bus1=node_oh3770115.3 conn=y phases=1 kv=7.2 kw=0.0 kvar=0.0 
new load.419042709 bus1=node_oh3770035.3 conn=y phases=1 kv=7.2 kw=1.16678011417389 kvar=0.0750508904457092 
new load.117217801 bus1=node_oh3770035.3 conn=y phases=1 kv=7.2 kw=2.04654455184937 kvar=0.131640046834946 
new load.419147208 bus1=node_oh3770035.3 conn=y phases=1 kv=7.2 kw=0.202782601118088 kvar=0.0130436019971967 
new load.419146001 bus1=node_oh3770035.3 conn=y phases=1 kv=7.2 kw=0.673862099647522 kvar=0.0433448888361454 
new load.418963908 bus1=node_oh3770026.3 conn=y phases=1 kv=7.2 kw=22.4620704650879 kvar=1.44482958316803 
new load.418215103 bus1=node_oh3770015.3 conn=y phases=1 kv=7.2 kw=1.31652724742889 kvar=0.0846830904483795 
new load.418210705 bus1=node_oh3770015.3 conn=y phases=1 kv=7.2 kw=0.233979895710945 kvar=0.0150503078475595 
new load.418700605 bus1=node_oh3770015.3 conn=y phases=1 kv=7.2 kw=1.66905629634857 kvar=0.10735884308815 
new load.419152309 bus1=node_oh3770015.3 conn=y phases=1 kv=7.2 kw=0.586509644985199 kvar=0.0377261079847813 
new load.419152382 bus1=node_oh3770015.3 conn=y phases=1 kv=7.2 kw=1.4413161277771 kvar=0.0927098989486694 
new load.350151101 bus1=node_oh3660007.3 conn=y phases=1 kv=7.2 kw=1.07318818569183 kvar=0.0690307691693306 
new load.419145618 bus1=node_oh3670014.3 conn=y phases=1 kv=7.2 kw=1.40387940406799 kvar=0.0903018489480019 
new load.5046 bus1=node_oh3570039.3 conn=y phases=1 kv=7.2 kw=0.970237016677856 kvar=0.0624086372554302 
new load.419147818 bus1=node_oh3570039.3 conn=y phases=1 kv=7.2 kw=1.03575146198273 kvar=0.0666227266192436 
new load.5056 bus1=node_oh3560038.3 conn=y phases=1 kv=7.2 kw=0.0 kvar=0.0 
new load.350167601 bus1=node_oh3560038.3 conn=y phases=1 kv=7.2 kw=0.249578580260277 kvar=0.0160536635667086 
new load.350305109 bus1=node_oh3560038.3 conn=y phases=1 kv=7.2 kw=0.368128418922424 kvar=0.0236791539937258 
new load.317220009 bus1=node_oh4300213.1 conn=y phases=1 kv=7.2 kw=0.355649441480637 kvar=0.0228764675557613 
new load.117230107 bus1=node_oh4300213.1 conn=y phases=1 kv=7.2 kw=1.50683057308197 kvar=0.0969239845871925 
new load.217157105 bus1=node_oh4300213.1 conn=y phases=1 kv=7.2 kw=2.52074313163757 kvar=0.162141963839531 
new load.350224400 bus1=node_oh4300213.1 conn=y phases=1 kv=7.2 kw=0.046795979142189 kvar=0.00301006156951189 
new load.350312320 bus1=node_oh4300213.1 conn=y phases=1 kv=7.2 kw=1.25413227081299 kvar=0.0806696563959122 
new load.350296207 bus1=node_oh4300486.2 conn=y phases=1 kv=7.2 kw=0.0 kvar=0.0 
new load.350311560 bus1=node_oh4300486.2 conn=y phases=1 kv=7.2 kw=1.76576864719391 kvar=0.11357968300581 
new load.4822 bus1=node_oh4300486.2 conn=y phases=1 kv=7.2 kw=0.0 kvar=0.0 
new load.350140606 bus1=node_oh4300486.2 conn=y phases=1 kv=7.2 kw=0.939038932323456 kvar=0.0604018792510033 
new load.350311628 bus1=node_oh4300511.3 conn=y phases=1 kv=7.2 kw=1.83752167224884 kvar=0.118195056915283 
new load.350311712 bus1=node_oh4303863.3 conn=y phases=1 kv=7.2 kw=0.0 kvar=0.0 
new load.350313329 bus1=node_oh4303863.3 conn=y phases=1 kv=7.2 kw=1.38204169273376 kvar=0.0888971835374832 
new load.419140626 bus1=node_oh4303863.3 conn=y phases=1 kv=7.2 kw=3.23204231262207 kvar=0.207894921302795 
new load.350310510 bus1=node_oh4300591.3 conn=y phases=1 kv=7.2 kw=0.0249578598886728 kvar=0.00160536647308618 
new load.350269706 bus1=node_oh4303076.1 conn=y phases=1 kv=7.2 kw=0.471079587936401 kvar=0.0303012914955616 
new load.250004500 bus1=node_oh4300985.1 conn=y phases=1 kv=7.2 kw=1.22917401790619 kvar=0.0790642648935318 
new load.350209800 bus1=node_oh4300985.1 conn=y phases=1 kv=7.2 kw=0.0 kvar=0.0 
new load.150035204 bus1=node_oh4300985.1 conn=y phases=1 kv=7.2 kw=0.533474147319794 kvar=0.0343147031962872 
new load.25 bus1=node_oh4300938.1 conn=y phases=1 kv=7.2 kw=0.0 kvar=0.0 
new load.3682 bus1=node_oh4300606.2 conn=y phases=1 kv=7.2 kw=0.0 kvar=0.0 
new load.3683 bus1=node_oh4300606.2 conn=y phases=1 kv=7.2 kw=0.0 kvar=0.0 
new load.117228803 bus1=node_oh4300606.2 conn=y phases=1 kv=7.2 kw=0.0 kvar=0.0 
new load.350183003 bus1=node_oh4302347.1 conn=y phases=1 kv=7.2 kw=1.76888799667358 kvar=0.113780327141285 
new load.350175809 bus1=node_oh4302368.2 conn=y phases=1 kv=7.2 kw=0.455480933189392 kvar=0.0292979385703802 
new load.350311688 bus1=node_oh4300607.2 conn=y phases=1 kv=7.2 kw=0.845447421073914 kvar=0.0543817840516567 
new load.350313376 bus1=node_oh4302383.1 conn=y phases=1 kv=7.2 kw=6.08659744262695 kvar=0.39150869846344 
new load.350268904 bus1=node_oh4302386.2 conn=y phases=1 kv=7.2 kw=1.12310349941254 kvar=0.0722414776682854 
new load.350100809 bus1=node_oh4302387.3 conn=y phases=1 kv=7.2 kw=2.89823126792908 kvar=0.186423167586327 
new load.350088604 bus1=node_oh4302402.1.2.3 conn=y phases=3 kv=12.47 kw=0.0 kvar=0.0 
new load.12146 bus1=node_oh4301000.3 conn=y phases=1 kv=7.2 kw=0.664502859115601 kvar=0.0427428707480431 
new load.150013308 bus1=node_oh4301031.3 conn=y phases=1 kv=7.2 kw=0.0 kvar=0.0 
new load.350278803 bus1=node_oh4301124.3 conn=y phases=1 kv=7.2 kw=2.13389658927917 kvar=0.137258812785149 
new load.350306913 bus1=node_oh4301124.3 conn=y phases=1 kv=7.2 kw=0.926560401916504 kvar=0.0595992207527161 
new load.350105606 bus1=node_oh4301124.3 conn=y phases=1 kv=7.2 kw=0.268296986818314 kvar=0.0172576885670424 
new load.350088108 bus1=node_oh4301124.3 conn=y phases=1 kv=7.2 kw=0.811130285263062 kvar=0.0521744005382061 
new load.350104502 bus1=node_oh4301124.3 conn=y phases=1 kv=7.2 kw=0.948398113250732 kvar=0.061003889888525 
new load.350275803 bus1=node_oh4301140.3 conn=y phases=1 kv=7.2 kw=0.595868825912476 kvar=0.038328118622303 
new load.350200102 bus1=node_oh4301140.3 conn=y phases=1 kv=7.2 kw=0.0 kvar=0.0 
new load.350004303 bus1=node_oh4301140.3 conn=y phases=1 kv=7.2 kw=1.0139125585556 kvar=0.0652179792523384 
new load.28271 bus1=node_oh4301140.3 conn=y phases=1 kv=7.2 kw=0.0 kvar=0.0 
new load.350284802 bus1=node_oh4301176.3 conn=y phases=1 kv=7.2 kw=2.63617372512817 kvar=0.169566825032234 
new load.350245505 bus1=node_oh4301176.3 conn=y phases=1 kv=7.2 kw=2.74536395072937 kvar=0.176590278744698 
new load.419153122 bus1=node_oh4301176.3 conn=y phases=1 kv=7.2 kw=0.42116379737854 kvar=0.0270905531942844 
new load.150020908 bus1=node_oh4301193.3 conn=y phases=1 kv=7.2 kw=0.10919065028429 kvar=0.00702347932383418 
new load.350312755 bus1=node_oh4301193.3 conn=y phases=1 kv=7.2 kw=2.89823126792908 kvar=0.186423167586327 
new load.28098 bus1=node_oh4301210.3 conn=y phases=1 kv=7.2 kw=0.0 kvar=0.0 
new load.28129 bus1=node_oh4301210.3 conn=y phases=1 kv=7.2 kw=0.0 kvar=0.0 
new load.350209606 bus1=node_oh4301227.1 conn=y phases=1 kv=7.2 kw=1.31028735637665 kvar=0.0842817202210426 
new load.150013901 bus1=node_oh4301227.1 conn=y phases=1 kv=7.2 kw=0.0 kvar=0.0 
new load.150028305 bus1=node_oh4301251.3 conn=y phases=1 kv=7.2 kw=0.648904323577881 kvar=0.0417395271360874 
new load.350256507 bus1=node_oh4301251.3 conn=y phases=1 kv=7.2 kw=2.13701605796814 kvar=0.137459456920624 
new load.150015300 bus1=node_oh4301265.3 conn=y phases=1 kv=7.2 kw=0.258937776088715 kvar=0.0166556760668755 
new load.350144601 bus1=node_oh4301265.3 conn=y phases=1 kv=7.2 kw=0.633305668830872 kvar=0.0407361723482609 
new load.350250800 bus1=node_oh4301265.3 conn=y phases=1 kv=7.2 kw=1.43195700645447 kvar=0.092107892036438 
new load.27993 bus1=node_oh4301270.3 conn=y phases=1 kv=7.2 kw=0.302614033222198 kvar=0.0194650683552027 
new load.150022900 bus1=node_oh4301270.3 conn=y phases=1 kv=7.2 kw=1.99974858760834 kvar=0.128629997372627 
new load.350311570 bus1=node_oh4301270.3 conn=y phases=1 kv=7.2 kw=0.879764378070831 kvar=0.0565891563892365 
new load.150024709 bus1=node_oh4301273.3 conn=y phases=1 kv=7.2 kw=0.951518595218658 kvar=0.0612046085298061 
new load.150024806 bus1=node_oh4301295.2 conn=y phases=1 kv=7.2 kw=0.511636078357697 kvar=0.0329100079834461 
new load.28135 bus1=node_oh4301298.3 conn=y phases=1 kv=7.2 kw=5.14131879806519 kvar=0.330705463886261 
new load.28134 bus1=node_oh4301301.1 conn=y phases=1 kv=7.2 kw=1.11998414993286 kvar=0.0720408335328102 
new load.250008603 bus1=node_oh4301301.1 conn=y phases=1 kv=7.2 kw=0.496037364006042 kvar=0.0319066531956196 
new load.350254806 bus1=node_oh4301301.1 conn=y phases=1 kv=7.2 kw=0.255817979574203 kvar=0.0164550002664328 
new load.350309541 bus1=node_oh4301301.1 conn=y phases=1 kv=7.2 kw=0.355649441480637 kvar=0.0228764675557613 
new load.350259603 bus1=node_oh4301314.1 conn=y phases=1 kv=7.2 kw=0.0779933035373688 kvar=0.0050167697481811 
new load.150023400 bus1=node_oh4301314.1 conn=y phases=1 kv=7.2 kw=0.249578580260277 kvar=0.0160536635667086 
new load.150023605 bus1=node_oh4301314.1 conn=y phases=1 kv=7.2 kw=0.227740421891212 kvar=0.0146489655598998 
new load.350294506 bus1=node_oh4301314.1 conn=y phases=1 kv=7.2 kw=1.23541390895844 kvar=0.0794656276702881 
new load.350274505 bus1=node_oh4301328.3 conn=y phases=1 kv=7.2 kw=0.402445405721664 kvar=0.0258865281939507 
new load.150019004 bus1=node_oh4301340.3 conn=y phases=1 kv=7.2 kw=0.811130285263062 kvar=0.0521744005382061 
new load.350286503 bus1=node_oh4301340.3 conn=y phases=1 kv=7.2 kw=1.05134928226471 kvar=0.067626029253006 
new load.350295200 bus1=node_oh4301340.3 conn=y phases=1 kv=7.2 kw=0.302614033222198 kvar=0.0194650683552027 
new load.350007108 bus1=node_oh4301344.3 conn=y phases=1 kv=7.2 kw=0.970237016677856 kvar=0.0624086372554302 
new load.27923 bus1=node_oh4301346.3 conn=y phases=1 kv=7.2 kw=0.0 kvar=0.0 
new load.350311633 bus1=node_oh4301346.3 conn=y phases=1 kv=7.2 kw=2.20253038406372 kvar=0.141673550009727 
new load.27922 bus1=node_oh4301346.3 conn=y phases=1 kv=7.2 kw=0.0 kvar=0.0 
new load.150013103 bus1=node_oh4301367.3 conn=y phases=1 kv=7.2 kw=1.60354197025299 kvar=0.103144764900208 
new load.28149 bus1=node_oh4301375.3 conn=y phases=1 kv=7.2 kw=0.0 kvar=0.0 
new load.27934 bus1=node_oh4301375.3 conn=y phases=1 kv=7.2 kw=0.0 kvar=0.0 
new load.27935 bus1=node_oh4301375.3 conn=y phases=1 kv=7.2 kw=0.639545142650604 kvar=0.0411375164985657 
new load.27936 bus1=node_oh4301375.3 conn=y phases=1 kv=7.2 kw=1.25101292133331 kvar=0.0804690048098564 
new load.350311692 bus1=node_oh4301375.3 conn=y phases=1 kv=7.2 kw=0.857926309108734 kvar=0.0551844649016857 
new load.27942 bus1=node_oh4301383.3 conn=y phases=1 kv=7.2 kw=0.0 kvar=0.0 
new load.27943 bus1=node_oh4301383.3 conn=y phases=1 kv=7.2 kw=2.90447044372559 kvar=0.186824485659599 
new load.350140509 bus1=node_oh4301391.3 conn=y phases=1 kv=7.2 kw=1.3664425611496 kvar=0.0878937989473343 
new load.350311755 bus1=node_oh4301391.3 conn=y phases=1 kv=7.2 kw=0.879764378070831 kvar=0.0565891563892365 
new load.28001 bus1=node_oh4301392.3 conn=y phases=1 kv=7.2 kw=0.0 kvar=0.0 
new load.350309210 bus1=node_oh4301393.3 conn=y phases=1 kv=7.2 kw=1.39763963222504 kvar=0.0899004861712456 
new load.350312284 bus1=node_oh4301393.3 conn=y phases=1 kv=7.2 kw=1.22917401790619 kvar=0.0790642648935318 
new load.150031101 bus1=node_oh4301396.3 conn=y phases=1 kv=7.2 kw=1.23853313922882 kvar=0.0796662718057632 
new load.350161808 bus1=node_oh4301396.3 conn=y phases=1 kv=7.2 kw=1.67529618740082 kvar=0.107760213315487 
new load.350311710 bus1=node_oh4301397.3 conn=y phases=1 kv=7.2 kw=1.69713377952576 kvar=0.109164878726006 
new load.28028 bus1=node_oh4301403.3 conn=y phases=1 kv=7.2 kw=1.84688091278076 kvar=0.118797071278095 
new load.350310520 bus1=node_oh4301411.3 conn=y phases=1 kv=7.2 kw=0.0 kvar=0.0 
new load.350312351 bus1=node_oh4301411.3 conn=y phases=1 kv=7.2 kw=0.246458798646927 kvar=0.015852989628911 
new load.350238002 bus1=node_oh4301413.3 conn=y phases=1 kv=7.2 kw=1.94983208179474 kvar=0.125419214367867 
new load.350169701 bus1=node_oh4301415.3 conn=y phases=1 kv=7.2 kw=1.65345823764801 kvar=0.106355533003807 
new load.308494 bus1=node_oh4301415.3 conn=y phases=1 kv=7.2 kw=2.3803551197052 kvar=0.153111785650253 
new load.28041 bus1=node_oh4301417.3 conn=y phases=1 kv=7.2 kw=0.567791283130646 kvar=0.0365220867097378 
new load.350308491 bus1=node_oh4301417.3 conn=y phases=1 kv=7.2 kw=0.38060736656189 kvar=0.0244818385690451 
new load.150016103 bus1=node_oh4301417.3 conn=y phases=1 kv=7.2 kw=1.96231186389923 kvar=0.12622195482254 
new load.350221207 bus1=node_oh4301417.3 conn=y phases=1 kv=7.2 kw=0.396205991506577 kvar=0.0254851914942265 
new load.350225105 bus1=node_oh4301417.3 conn=y phases=1 kv=7.2 kw=1.46939373016357 kvar=0.094515934586525 
new load.28047 bus1=node_oh4307357.3 conn=y phases=1 kv=7.2 kw=0.0 kvar=0.0 
new load.350309211 bus1=node_oh4307357.3 conn=y phases=1 kv=7.2 kw=2.25244688987732 kvar=0.144884333014488 
new load.350312279 bus1=node_oh4307356.3 conn=y phases=1 kv=7.2 kw=0.0967116579413414 kvar=0.00622079195454717 
new load.350218001 bus1=node_oh4307355.3 conn=y phases=1 kv=7.2 kw=1.41011917591095 kvar=0.0907032117247581 
new load.150013309 bus1=node_oh4301424.3 conn=y phases=1 kv=7.2 kw=0.0 kvar=0.0 
new load.350311578 bus1=node_oh4301424.3 conn=y phases=1 kv=7.2 kw=0.0 kvar=0.0 
new load.350247109 bus1=node_oh4301424.3 conn=y phases=1 kv=7.2 kw=1.31340670585632 kvar=0.0844823643565178 
new load.150018008 bus1=node_oh4301435.3 conn=y phases=1 kv=7.2 kw=1.61914086341858 kvar=0.104148134589195 
new load.350309233 bus1=node_oh4301447.3 conn=y phases=1 kv=7.2 kw=0.0 kvar=0.0 
new load.350309250 bus1=node_oh4301447.3 conn=y phases=1 kv=7.2 kw=0.0 kvar=0.0 
new load.250002303 bus1=node_oh4301453.3 conn=y phases=1 kv=7.2 kw=0.683221280574799 kvar=0.0439468994736671 
new load.350311513 bus1=node_oh4301453.3 conn=y phases=1 kv=7.2 kw=1.18861782550812 kvar=0.0764555633068085 
new load.350312308 bus1=node_oh4301453.3 conn=y phases=1 kv=7.2 kw=2.90135073661804 kvar=0.186623826622963 
new load.350311464 bus1=node_oh4301457.3 conn=y phases=1 kv=7.2 kw=0.992074728012085 kvar=0.0638133063912392 
new load.28137 bus1=node_oh4301457.3 conn=y phases=1 kv=7.2 kw=2.51138401031494 kvar=0.161539956927299 
new load.350285507 bus1=node_oh4301463.3 conn=y phases=1 kv=7.2 kw=1.84688091278076 kvar=0.118797071278095 
new load.28143 bus1=node_oh4301465.3 conn=y phases=1 kv=7.2 kw=1.05134928226471 kvar=0.067626029253006 
new load.350216807 bus1=node_oh4301465.3 conn=y phases=1 kv=7.2 kw=0.948398113250732 kvar=0.061003889888525 
new load.150014800 bus1=node_oh4301465.3 conn=y phases=1 kv=7.2 kw=0.995194137096405 kvar=0.0640139579772949 
new load.350201400 bus1=node_oh4301465.3 conn=y phases=1 kv=7.2 kw=1.53802752494812 kvar=0.0989306718111038 
new load.350238509 bus1=node_oh4301465.3 conn=y phases=1 kv=7.2 kw=0.973356366157532 kvar=0.0626092851161957 
new load.350311767 bus1=node_oh4307435.3 conn=y phases=1 kv=7.2 kw=1.97790968418121 kvar=0.127225250005722 
new load.350193408 bus1=node_oh4307439.3 conn=y phases=1 kv=7.2 kw=0.0 kvar=0.0 
new load.419154307 bus1=node_oh4307441.3 conn=y phases=1 kv=7.2 kw=1.73769104480743 kvar=0.111773647367954 
new load.350234406 bus1=node_oh4307449.3 conn=y phases=1 kv=7.2 kw=0.652024030685425 kvar=0.0419401973485947 
new load.350145500 bus1=node_oh4307464.3 conn=y phases=1 kv=7.2 kw=2.73288512229919 kvar=0.175787597894669 
new load.350311670 bus1=node_oh4307464.3 conn=y phases=1 kv=7.2 kw=1.60978162288666 kvar=0.103546112775803 
new load.350224702 bus1=node_oh4307470.3 conn=y phases=1 kv=7.2 kw=0.0 kvar=0.0 
new load.350269501 bus1=node_oh4307470.3 conn=y phases=1 kv=7.2 kw=0.82984870672226 kvar=0.0533784255385399 
new load.350207204 bus1=node_oh4301475.3 conn=y phases=1 kv=7.2 kw=1.00143396854401 kvar=0.0644153207540512 
new load.27970 bus1=node_oh4301475.3 conn=y phases=1 kv=7.2 kw=0.0 kvar=0.0 
new load.350264003 bus1=node_oh4301475.3 conn=y phases=1 kv=7.2 kw=1.17613935470581 kvar=0.0756529122591019 
new load.350311615 bus1=node_oh4301475.3 conn=y phases=1 kv=7.2 kw=0.508516371250153 kvar=0.0327093414962292 
new load.419156429 bus1=node_oh4301475.3 conn=y phases=1 kv=7.2 kw=0.0 kvar=0.0 
new load.350134002 bus1=node_oh4301478.3 conn=y phases=1 kv=7.2 kw=0.00311973178759217 kvar=0.000200670765480027 
new load.350267002 bus1=node_oh4301478.3 conn=y phases=1 kv=7.2 kw=1.66281747817993 kvar=0.106957547366619 
new load.27973 bus1=node_oh4301478.3 conn=y phases=1 kv=7.2 kw=0.0 kvar=0.0 
new load.27887 bus1=node_oh4301479.3 conn=y phases=1 kv=7.2 kw=5.69351148605347 kvar=0.366224199533463 
new load.28279 bus1=node_oh4301479.3 conn=y phases=1 kv=7.2 kw=0.0 kvar=0.0 
new load.350267003 bus1=node_oh4301479.3 conn=y phases=1 kv=7.2 kw=0.134148448705673 kvar=0.00862884148955345 
new load.27886 bus1=node_oh4301482.3 conn=y phases=1 kv=7.2 kw=0.0 kvar=0.0 
new load.350084404 bus1=node_oh4301482.3 conn=y phases=1 kv=7.2 kw=1.74705040454865 kvar=0.112375669181347 
new load.150012700 bus1=node_oh4301485.3 conn=y phases=1 kv=7.2 kw=0.0 kvar=0.0 
new load.350205503 bus1=node_oh4301485.3 conn=y phases=1 kv=7.2 kw=1.48811221122742 kvar=0.095719963312149 
new load.350312327 bus1=node_oh4301485.3 conn=y phases=1 kv=7.2 kw=0.268296986818314 kvar=0.0172576885670424 
new load.350167709 bus1=node_oh4301485.3 conn=y phases=1 kv=7.2 kw=0.268296986818314 kvar=0.0172576885670424 
new load.350311514 bus1=node_oh4301485.3 conn=y phases=1 kv=7.2 kw=0.53035444021225 kvar=0.0341140329837799 
new load.350311747 bus1=node_oh4301485.3 conn=y phases=1 kv=7.2 kw=0.330691635608673 kvar=0.0212711058557034 
new load.350312240 bus1=node_oh4301488.3 conn=y phases=1 kv=7.2 kw=2.28988361358643 kvar=0.147292375564575 
new load.27983 bus1=node_oh4301488.3 conn=y phases=1 kv=7.2 kw=0.0 kvar=0.0 
new load.350311860 bus1=node_oh4301488.3 conn=y phases=1 kv=7.2 kw=0.758094847202301 kvar=0.048762995749712 
new load.350265409 bus1=node_oh4301492.3 conn=y phases=1 kv=7.2 kw=0.19342340528965 kvar=0.0124415894970298 
new load.27959 bus1=node_oh4307467.3 conn=y phases=1 kv=7.2 kw=0.0 kvar=0.0 
new load.27962 bus1=node_oh4307467.3 conn=y phases=1 kv=7.2 kw=0.0 kvar=0.0 
...
